FAST.Farm     v1.00.*       - INPUT FILE
Sample        FAST.Farm     - input file
--- SIMULATION CONTROL ---
False         Echo          - Echo input data to <RootName>.ech? (flag)
FATAL         AbortLevel    - Error level when simulation should abort (string) {"WARNING", "SEVERE", "FATAL"}
10            TMax          - Total run time (s) [>=0.0]
False         UseSC         - Use a super controller? (flag)
3             Mod_AmbWind   - Ambient wind model (-) (switch) {1: high-fidelity precursor in VTK format, 2: InflowWind module}
2             Mod_WaveField - Wave field handling (-) (switch) {1: use individual HydroDyn inputs without adjustment, 2: adjust wave phases based on turbine offsets from farm origin}
0             Mod_SharedMooring - Shared mooring system model (switch) {0: None, 3=MoorDyn}}
--- SUPER CONTROLLER --- [used only for UseSC=True]
/path/to/SC_DLL.dll SC_FileName   - Name/location of the dynamic library {.dll [Windows] or .so [Linux]} containing the Super Controller algorithms (quoated string)
--- SHARED MOORING SYSTEM --- [used only for Mod_SharedMoor>0]
""            SharedMoorFile - Name of file containing shared mooring system input parameters (quoted string) [used only when Mod_SharedMooring > 0]
0.04          DT_Mooring    - Time step for farm-level mooring coupling with each turbine (s) [used only when Mod_SharedMooring > 0]
--- AMBIENT WIND: PRECURSOR IN VTK FORMAT --- [used only for Mod_AmbWind=1]
2.0           DT_Low-VTK    - Time step for low -resolution wind data input files; will be used as the global FAST.Farm time step (s) [>0.0]
0.1           DT_High-VTK   - Time step for high-resolution wind data input files (s) [>0.0]
"unused"      WindFilePath  - Path name to wind data files from precursor (string)
False         ChkWndFiles   - Check all the ambient wind files for data consistency? (flag)
--- AMBIENT WIND: INFLOWWIND MODULE --- [used only for Mod_AmbWind=2 or 3]
3.0           DT_Low        - Time step for low -resolution wind data interpolation; will be used as the global FAST.Farm time step (s) [>0.0]
0.3           DT_High       - Time step for high-resolution wind data interpolation (s) [>0.0]
70            NX_Low        - Number of low -resolution spatial nodes in X direction for wind data interpolation (-) [>=2]
239           NY_Low        - Number of low -resolution spatial nodes in Y direction for wind data interpolation (-) [>=2]
15            NZ_Low        - Number of low -resolution spatial nodes in Z direction for wind data interpolation (-) [>=2]
11850         X0_Low        - Origin of low -resolution spatial nodes in X direction for wind data interpolation (m)
-2975.0       Y0_Low        - Origin of low -resolution spatial nodes in Y direction for wind data interpolation (m)
1.0           Z0_Low        - Origin of low -resolution spatial nodes in Z direction for wind data interpolation (m)
30            dX_Low        - Spacing of low -resolution spatial nodes in X direction for wind data interpolation (m) [>0.0]
25.0          dY_Low        - Spacing of low -resolution spatial nodes in Y direction for wind data interpolation (m) [>0.0]
25.0          dZ_Low        - Spacing of low -resolution spatial nodes in Z direction for wind data interpolation (m) [>0.0]
27            NX_High       - Number of high-resolution spatial nodes in X direction for wind data interpolation (-) [>=2]
33            NY_High       - Number of high-resolution spatial nodes in Y direction for wind data interpolation (-) [>=2]
35            NZ_High       - Number of high-resolution spatial nodes in Z direction for wind data interpolation (-) [>=2]
"./NREL-2p8-127_InflowFile.dat" InflowFile    - Name of file containing InflowWind module input parameters (quoted string)
--- WIND TURBINES ---
12            NumTurbines   - Number of wind turbines (-) [>=1] [last 6 columns used only for Mod_AmbWind=2]
WT_X            WT_Y            WT_Z            WT_FASTInFile   X0_High         Y0_High         Z0_High         dX_High         dY_High         dZ_High        
(m)             (m)             (m)             (string)        (m)             (m)             (m)             (m)             (m)             (m)            
1.23948800e+04	-2.49330500e+03	0	"NREL-2p8-127.T1.fst"	12318	-2575	1	6	5	5
1.28311200e+04	-2.57114500e+03	0	"NREL-2p8-127.T2.fst"	12750	-2655	1	6	5	5
1.31775700e+04	-2.41263500e+03	0	"NREL-2p8-127.T3.fst"	13098	-2495	1	6	5	5
1.22394800e+04	-7.17425000e+02	0	"NREL-2p8-127.T4.fst"	12162	-800	1	6	5	5
1.27468500e+04	-7.25275000e+02	0	"NREL-2p8-127.T5.fst"	12666	-810	1	6	5	5
1.31612100e+04	-6.75735000e+02	0	"NREL-2p8-127.T6.fst"	13080	-760	1	6	5	5
1.22965100e+04	5.58575000e+02	0	"NREL-2p8-127.T7.fst"	12216	475	1	6	5	5
1.27322800e+04	5.64145000e+02	0	"NREL-2p8-127.T8.fst"	12654	480	1	6	5	5
1.31298200e+04	5.92795000e+02	0	"NREL-2p8-127.T9.fst"	13050	510	1	6	5	5
1.22616100e+04	2.45996500e+03	0	"NREL-2p8-127.T10.fst"	12180	2375	1	6	5	5
1.27081300e+04	2.56607500e+03	0	"NREL-2p8-127.T11.fst"	12630	2485	1	6	5	5
1.31317900e+04	2.57114500e+03	0	"NREL-2p8-127.T12.fst"	13050	2490	1	6	5	5
--- WAKE DYNAMICS ---
1             Mod_Wake      - Switch between wake formulations {1:Polar, 2:Curl, 3:Cartesian} (-) (switch)
5             dr            - Radial increment of radial finite-difference grid (m) [>0.0]
40            NumRadii      - Number of radii in the radial finite-difference grid (-) [>=2]
102           NumPlanes     - Number of wake planes (-) [>=2]
DEFAULT       f_c           - Cutoff (corner) frequency of the low-pass time-filter for the wake advection, deflection, and meandering model (Hz) [>0.0] or DEFAULT [DEFAULT=0.0007]
DEFAULT       C_HWkDfl_O    - Calibrated parameter in the correction for wake deflection defining the horizontal offset at the rotor (m ) or DEFAULT [DEFAULT= 0.0 ]
DEFAULT       C_HWkDfl_OY   - Calibrated parameter in the correction for wake deflection defining the horizontal offset at the rotor scaled with yaw error (m/deg) or DEFAULT [DEFAULT= 0.3 ]
DEFAULT       C_HWkDfl_x    - Calibrated parameter in the correction for wake deflection defining the horizontal offset scaled with downstream distance (- ) or DEFAULT [DEFAULT= 0.0 ]
DEFAULT       C_HWkDfl_xY   - Calibrated parameter in the correction for wake deflection defining the horizontal offset scaled with downstream distance and yaw error (1/deg) or DEFAULT [DEFAULT=-0.004]
DEFAULT       C_NearWake    - Calibrated parameter for the near-wake correction (-) [>1.0 and <2.5] or DEFAULT [DEFAULT=1.8]
DEFAULT       k_vAmb        - Calibrated parameter for the influence of ambient turbulence in the eddy viscosity (-) [>=0.0] or DEFAULT [DEFAULT=0.05 ]
DEFAULT       k_vShr        - Calibrated parameter for the influence of the shear layer in the eddy viscosity (-) [>=0.0] or DEFAULT [DEFAULT=0.016]
DEFAULT       C_vAmb_DMin   - Calibrated parameter in the eddy viscosity filter function for ambient turbulence defining the transitional diameter fraction between the minimum and exponential regions (-) [>=0.0 ] or DEFAULT [DEFAULT= 0.0 ]
DEFAULT       C_vAmb_DMax   - Calibrated parameter in the eddy viscosity filter function for ambient turbulence defining the transitional diameter fraction between the exponential and maximum regions (-) [> C_vAmb_DMin ] or DEFAULT [DEFAULT= 1.0 ]
DEFAULT       C_vAmb_FMin   - Calibrated parameter in the eddy viscosity filter function for ambient turbulence defining the value in the minimum region (-) [>=0.0 and <=1.0] or DEFAULT [DEFAULT= 1.0 ]
DEFAULT       C_vAmb_Exp    - Calibrated parameter in the eddy viscosity filter function for ambient turbulence defining the exponent in the exponential region (-) [> 0.0 ] or DEFAULT [DEFAULT= 0.01]
DEFAULT       C_vShr_DMin   - Calibrated parameter in the eddy viscosity filter function for the shear layer defining the transitional diameter fraction between the minimum and exponential regions (-) [>=0.0 ] or DEFAULT [DEFAULT= 3.0 ]
DEFAULT       C_vShr_DMax   - Calibrated parameter in the eddy viscosity filter function for the shear layer defining the transitional diameter fraction between the exponential and maximum regions (-) [> C_vShr_DMin ] or DEFAULT [DEFAULT=25.0 ]
DEFAULT       C_vShr_FMin   - Calibrated parameter in the eddy viscosity filter function for the shear layer defining the value in the minimum region (-) [>=0.0 and <=1.0] or DEFAULT [DEFAULT= 0.2 ]
DEFAULT       C_vShr_Exp    - Calibrated parameter in the eddy viscosity filter function for the shear layer defining the exponent in the exponential region (-) [> 0.0 ] or DEFAULT [DEFAULT= 0.1 ]
DEFAULT       Mod_WakeDiam  - Wake diameter calculation model (-) (switch) {1: rotor diameter, 2: velocity based, 3: mass-flux based, 4: momentum-flux based} or DEFAULT [DEFAULT=1]
DEFAULT       C_WakeDiam    - Calibrated parameter for wake diameter calculation (-) [>0.0 and <0.99] or DEFAULT [DEFAULT=0.95] [unused for Mod_WakeDiam=1]
DEFAULT       Mod_Meander   - Spatial filter model for wake meandering (-) (switch) {1: uniform, 2: truncated jinc, 3: windowed jinc} or DEFAULT [DEFAULT=3]
DEFAULT       C_Meander     - Calibrated parameter for wake meandering (-) [>=1.0] or DEFAULT [DEFAULT=1.9]
--- CURLED-WAKE PARAMETERS [only used if Mod_Wake=2 or 3] ---
DEFAULT       Swirl         - Switch to include swirl velocities in wake (-) (switch) [DEFAULT=TRUE]
DEFAULT       k_VortexDecay - Vortex decay constant for curl (-) [DEFAULT=0]
DEFAULT       NumVortices   - The number of vortices in the curled wake model (-) [DEFAULT=100]
DEFAULT       sigma_D       - The width of the vortices in the curled wake model non-dimesionalized by rotor diameter (-) [DEFAULT=0.2]
DEFAULT       FilterInit    - Switch to filter the initial wake plane deficit and select the number of grid points for the filter {0: no filter, 1: filter of size 1} or DEFAULT [DEFAULT=1] (switch)
DEFAULT       k_vCurl       - Calibrated parameter for scaling the eddy viscosity in the curled-wake model (-) [>=0] or DEFAULT [DEFAULT=2.0 ]
DEFAULT       Mod_Projection - Switch to select how the wake plane velocity is projected in AWAE {1: keep all components, 2: project against plane normal} or DEFAULT [DEFAULT=1: if Mod_Wake is 1 or 3, or DEFAULT=2: if Mod_Wake is 2] (switch)
--- VISUALIZATION ---
False         WrDisWind     - Write low- and high-resolution disturbed wind data to <RootName>.Low.Dis.t<n>.vtk etc.? (flag)
1             NOutDisWindXY - Number of XY planes for output of disturbed wind data across the low-resolution domain to <RootName>.Low.DisXY<n_out>.t<n>.vtk (-) [0 to 9]
89.5          OutDisWindZ   - Z coordinates of XY planes for output of disturbed wind data across the low-resolution domain (m) [1 to NOutDisWindXY] [unused for NOutDisWindXY=0]
9             NOutDisWindYZ - Number of YZ planes for output of disturbed wind data across the low-resolution domain to <RootName>/Low.DisYZ<n_out>.t<n>.vtk (-) [0 to 9]
11868.48, 11890.61, 11925.51, 12023.88, 12337.13, 12361.28, 12375.85, 12460.12, 12758.82 OutDisWindX   - X coordinates of YZ planes for output of disturbed wind data across the low-resolution domain (m) [1 to NOutDisWindYZ] [unused for NOutDisWindYZ=0]
9             NOutDisWindXZ - Number of XZ planes for output of disturbed wind data across the low-resolution domain to <RootName>/Low.DisXZ<n_out>.t<n>.vtk (-) [0 to 9]
-2571.145, -2493.305, -2412.635, -725.2750000000001, -717.425, -675.7350000000001, 558.5749999999998, 564.145, 592.7950000000001 OutDisWindY   - Y coordinates of XZ planes for output of disturbed wind data across the low-resolution domain (m) [1 to NOutDisWindXZ] [unused for NOutDisWindXZ=0]
3.0           WrDisDT       - Time step for disturbed wind visualization output (s) [>0.0] or DEFAULT [DEFAULT=DT_Low or DT_Low-VTK] [unused for WrDisWind=False and NOutDisWindXY=NOutDisWindYZ=NOutDisWindXZ=0]
--- OUTPUT ---
True          SumPrint      - Print summary data to <RootName>.sum? (flag)
99999.9       ChkptTime     - Amount of time between creating checkpoint files for potential restart (s) [>0.0]
200.0         TStart        - Time to begin tabular output (s) [>=0.0]
1             OutFileFmt    - Format for tabular (time-marching) output file (switch) {1: text file [<RootName>.out], 2: binary file [<RootName>.outb], 3: both}
True          TabDelim      - Use tab delimiters in text tabular output file? (flag) {uses spaces if False}
"ES10.3E2"    OutFmt        - Format used for text tabular output, excluding the time channel. Resulting field should be 10 characters. (quoted string)
DEFAULT       OutAllPlanes  - Output all wake planes at all time steps. [DEFAULT=False]
20            NOutRadii     - Number of radial nodes for wake output for an individual rotor (-) [0 to 20]
0, 1, 2, 3, 4, 5, 7, 9, 11, 13, 15, 16, 17, 18, 19, 21, 24, 28, 33, 39 OutRadii      - List of radial nodes for wake output for an individual rotor (-) [1 to NOutRadii] [unused for NOutRadii=0]
9             NOutDist      - Number of downstream distances for wake output for an individual rotor (-) [0 to 9 ]
127.0, 190.5, 254.0, 317.5, 381.0, 444.5, 508.0, 635.0, 762.0 OutDist       - List of downstream distances for wake output for an individual rotor (m) [1 to NOutDist ] [unused for NOutDist =0]
9             NWindVel      - Number of points for wind output (-) [0 to 9]
12394.88, 12831.12, 13177.57, 12239.48, 12746.85, 13161.21, 12296.51, 12732.28, 13129.82 WindVelX      - List of coordinates in the X direction for wind output (m) [1 to NWindVel] [unused for NWindVel=0]
153.78, 75.94, 234.45, 1929.66, 1921.81, 1971.35, 3205.66, 3211.23, 3239.88 WindVelY      - List of coordinates in the Y direction for wind output (m) [1 to NWindVel] [unused for NWindVel=0]
88.5, 88.5, 88.5, 88.5, 88.5, 88.5, 88.5, 88.5, 88.5 WindVelZ      - List of coordinates in the Z direction for wind output (m) [1 to NWindVel] [unused for NWindVel=0]
 OutList The next line(s) contains a list of output parameters.  See OutListParameters.xlsx for a listing of available output channels (quoted string)
"RtAxsXT1     , RtAxsYT1     , RtAxsZT1"
"RtAxsXT2     , RtAxsYT2     , RtAxsZT2"
"RtAxsXT3     , RtAxsYT3     , RtAxsZT3"
"RtAxsXT4     , RtAxsYT4     , RtAxsZT4"
"RtAxsXT5     , RtAxsYT5     , RtAxsZT5"
"RtAxsXT6     , RtAxsYT6     , RtAxsZT6"
"RtAxsXT7     , RtAxsYT7     , RtAxsZT7"
"RtAxsXT8     , RtAxsYT8     , RtAxsZT8"
"RtAxsXT9     , RtAxsYT9     , RtAxsZT9"
"RtPosXT1     , RtPosYT1     , RtPosZT1"
"RtPosXT2     , RtPosYT2     , RtPosZT2"
"RtPosXT3     , RtPosYT3     , RtPosZT3"
"RtPosXT4     , RtPosYT4     , RtPosZT4"
"RtPosXT5     , RtPosYT5     , RtPosZT5"
"RtPosXT6     , RtPosYT6     , RtPosZT6"
"RtPosXT7     , RtPosYT7     , RtPosZT7"
"RtPosXT8     , RtPosYT8     , RtPosZT8"
"RtPosXT9     , RtPosYT9     , RtPosZT9"
"YawErrT1"
"YawErrT2"
"YawErrT3"
"YawErrT4"
"YawErrT5"
"YawErrT6"
"YawErrT7"
"YawErrT8"
"YawErrT9"
"TIAmbT1"
"TIAmbT2"
"TIAmbT3"
"TIAmbT4"
"TIAmbT5"
"TIAmbT6"
"TIAmbT7"
"TIAmbT8"
"TIAmbT9"
"RtVAmbT1"
"RtVAmbT2"
"RtVAmbT3"
"RtVAmbT4"
"RtVAmbT5"
"RtVAmbT6"
"RtVAmbT7"
"RtVAmbT8"
"RtVAmbT9"
"RtVRelT1"
"RtVRelT2"
"RtVRelT3"
"RtVRelT4"
"RtVRelT5"
"RtVRelT6"
"RtVRelT7"
"RtVRelT8"
"RtVRelT9"
"RtSkewT1"
"RtSkewT2"
"RtSkewT3"
"RtSkewT4"
"RtSkewT5"
"RtSkewT6"
"RtSkewT7"
"RtSkewT8"
"RtSkewT9"
"RtCtAvgT1"
"RtCtAvgT2"
"RtCtAvgT3"
"RtCtAvgT4"
"RtCtAvgT5"
"RtCtAvgT6"
"RtCtAvgT7"
"RtCtAvgT8"
"RtCtAvgT9"
"W1VAmbX, W1VAmbY, W1VAmbZ"
"W2VAmbX, W2VAmbY, W2VAmbZ"
"W3VAmbX, W3VAmbY, W3VAmbZ"
"W4VAmbX, W4VAmbY, W4VAmbZ"
"W5VAmbX, W5VAmbY, W5VAmbZ"
"W6VAmbX, W6VAmbY, W6VAmbZ"
"W7VAmbX, W7VAmbY, W7VAmbZ"
"W8VAmbX, W8VAmbY, W8VAmbZ"
"W9VAmbX, W9VAmbY, W9VAmbZ"
"W1VDisX, W1VDisY, W1VDisZ"
"W2VDisX, W2VDisY, W2VDisZ"
"W3VDisX, W3VDisY, W3VDisZ"
"W4VDisX, W4VDisY, W4VDisZ"
"W5VDisX, W5VDisY, W5VDisZ"
"W6VDisX, W6VDisY, W6VDisZ"
"W7VDisX, W7VDisY, W7VDisZ"
"W8VDisX, W8VDisY, W8VDisZ"
"W9VDisX, W9VDisY, W9VDisZ"
"CtT1N01      , CtT1N02      , CtT1N03      , CtT1N04      , CtT1N05      , CtT1N06      , CtT1N07      , CtT1N08      , CtT1N09      , CtT1N10      , CtT1N11      , CtT1N12      , CtT1N13      , CtT1N14      , CtT1N15      , CtT1N16      , CtT1N17      , CtT1N18      , CtT1N19      ,  CtT1N20"
"CtT2N01      , CtT2N02      , CtT2N03      , CtT2N04      , CtT2N05      , CtT2N06      , CtT2N07      , CtT2N08      , CtT2N09      , CtT2N10      , CtT2N11      , CtT2N12      , CtT2N13      , CtT2N14      , CtT2N15      , CtT2N16      , CtT2N17      , CtT2N18      , CtT2N19      ,  CtT2N20"
"CtT3N01      , CtT3N02      , CtT3N03      , CtT3N04      , CtT3N05      , CtT3N06      , CtT3N07      , CtT3N08      , CtT3N09      , CtT3N10      , CtT3N11      , CtT3N12      , CtT3N13      , CtT3N14      , CtT3N15      , CtT3N16      , CtT3N17      , CtT3N18      , CtT3N19      ,  CtT3N20"
"CtT4N01      , CtT4N02      , CtT4N03      , CtT4N04      , CtT4N05      , CtT4N06      , CtT4N07      , CtT4N08      , CtT4N09      , CtT4N10      , CtT4N11      , CtT4N12      , CtT4N13      , CtT4N14      , CtT4N15      , CtT4N16      , CtT4N17      , CtT4N18      , CtT4N19      ,  CtT4N20"
"CtT5N01      , CtT5N02      , CtT5N03      , CtT5N04      , CtT5N05      , CtT5N06      , CtT5N07      , CtT5N08      , CtT5N09      , CtT5N10      , CtT5N11      , CtT5N12      , CtT5N13      , CtT5N14      , CtT5N15      , CtT5N16      , CtT5N17      , CtT5N18      , CtT5N19      ,  CtT5N20"
"CtT6N01      , CtT6N02      , CtT6N03      , CtT6N04      , CtT6N05      , CtT6N06      , CtT6N07      , CtT6N08      , CtT6N09      , CtT6N10      , CtT6N11      , CtT6N12      , CtT6N13      , CtT6N14      , CtT6N15      , CtT6N16      , CtT6N17      , CtT6N18      , CtT6N19      ,  CtT6N20"
"CtT7N01      , CtT7N02      , CtT7N03      , CtT7N04      , CtT7N05      , CtT7N06      , CtT7N07      , CtT7N08      , CtT7N09      , CtT7N10      , CtT7N11      , CtT7N12      , CtT7N13      , CtT7N14      , CtT7N15      , CtT7N16      , CtT7N17      , CtT7N18      , CtT7N19      ,  CtT7N20"
"CtT8N01      , CtT8N02      , CtT8N03      , CtT8N04      , CtT8N05      , CtT8N06      , CtT8N07      , CtT8N08      , CtT8N09      , CtT8N10      , CtT8N11      , CtT8N12      , CtT8N13      , CtT8N14      , CtT8N15      , CtT8N16      , CtT8N17      , CtT8N18      , CtT8N19      ,  CtT8N20"
"CtT9N01      , CtT9N02      , CtT9N03      , CtT9N04      , CtT9N05      , CtT9N06      , CtT9N07      , CtT9N08      , CtT9N09      , CtT9N10      , CtT9N11      , CtT9N12      , CtT9N13      , CtT9N14      , CtT9N15      , CtT9N16      , CtT9N17      , CtT9N18      , CtT9N19      ,  CtT9N20"
"WkPosXT1D1   , WkPosXT1D2   , WkPosXT1D3   , WkPosXT1D4   , WkPosXT1D5   , WkPosXT1D6   , WkPosXT1D7   , WkPosXT1D8   , WkPosXT1D9"
"WkPosXT2D1   , WkPosXT2D2   , WkPosXT2D3   , WkPosXT2D4   , WkPosXT2D5   , WkPosXT2D6   , WkPosXT2D7   , WkPosXT2D8   , WkPosXT2D9"
"WkPosXT3D1   , WkPosXT3D2   , WkPosXT3D3   , WkPosXT3D4   , WkPosXT3D5   , WkPosXT3D6   , WkPosXT3D7   , WkPosXT3D8   , WkPosXT3D9"
"WkPosXT4D1   , WkPosXT4D2   , WkPosXT4D3   , WkPosXT4D4   , WkPosXT4D5   , WkPosXT4D6   , WkPosXT4D7   , WkPosXT4D8   , WkPosXT4D9"
"WkPosXT5D1   , WkPosXT5D2   , WkPosXT5D3   , WkPosXT5D4   , WkPosXT5D5   , WkPosXT5D6   , WkPosXT5D7   , WkPosXT5D8   , WkPosXT5D9"
"WkPosXT6D1   , WkPosXT6D2   , WkPosXT6D3   , WkPosXT6D4   , WkPosXT6D5   , WkPosXT6D6   , WkPosXT6D7   , WkPosXT6D8   , WkPosXT6D9"
"WkPosXT7D1   , WkPosXT7D2   , WkPosXT7D3   , WkPosXT7D4   , WkPosXT7D5   , WkPosXT7D6   , WkPosXT7D7   , WkPosXT7D8   , WkPosXT7D9"
"WkPosXT8D1   , WkPosXT8D2   , WkPosXT8D3   , WkPosXT8D4   , WkPosXT8D5   , WkPosXT8D6   , WkPosXT8D7   , WkPosXT8D8   , WkPosXT8D9"
"WkPosXT9D1   , WkPosXT9D2   , WkPosXT9D3   , WkPosXT9D4   , WkPosXT9D5   , WkPosXT9D6   , WkPosXT9D7   , WkPosXT9D8   , WkPosXT9D9"
"WkPosYT1D1   , WkPosYT1D2   , WkPosYT1D3   , WkPosYT1D4   , WkPosYT1D5   , WkPosYT1D6   , WkPosYT1D7   , WkPosYT1D8   , WkPosYT1D9"
"WkPosYT2D1   , WkPosYT2D2   , WkPosYT2D3   , WkPosYT2D4   , WkPosYT2D5   , WkPosYT2D6   , WkPosYT2D7   , WkPosYT2D8   , WkPosYT2D9"
"WkPosYT3D1   , WkPosYT3D2   , WkPosYT3D3   , WkPosYT3D4   , WkPosYT3D5   , WkPosYT3D6   , WkPosYT3D7   , WkPosYT3D8   , WkPosYT3D9"
"WkPosYT4D1   , WkPosYT4D2   , WkPosYT4D3   , WkPosYT4D4   , WkPosYT4D5   , WkPosYT4D6   , WkPosYT4D7   , WkPosYT4D8   , WkPosYT4D9"
"WkPosYT5D1   , WkPosYT5D2   , WkPosYT5D3   , WkPosYT5D4   , WkPosYT5D5   , WkPosYT5D6   , WkPosYT5D7   , WkPosYT5D8   , WkPosYT5D9"
"WkPosYT6D1   , WkPosYT6D2   , WkPosYT6D3   , WkPosYT6D4   , WkPosYT6D5   , WkPosYT6D6   , WkPosYT6D7   , WkPosYT6D8   , WkPosYT6D9"
"WkPosYT7D1   , WkPosYT7D2   , WkPosYT7D3   , WkPosYT7D4   , WkPosYT7D5   , WkPosYT7D6   , WkPosYT7D7   , WkPosYT7D8   , WkPosYT7D9"
"WkPosYT8D1   , WkPosYT8D2   , WkPosYT8D3   , WkPosYT8D4   , WkPosYT8D5   , WkPosYT8D6   , WkPosYT8D7   , WkPosYT8D8   , WkPosYT8D9"
"WkPosYT9D1   , WkPosYT9D2   , WkPosYT9D3   , WkPosYT9D4   , WkPosYT9D5   , WkPosYT9D6   , WkPosYT9D7   , WkPosYT9D8   , WkPosYT9D9"
"WkPosZT1D1   , WkPosZT1D2   , WkPosZT1D3   , WkPosZT1D4   , WkPosZT1D5   , WkPosZT1D6   , WkPosZT1D7   , WkPosZT1D8   , WkPosZT1D9"
"WkPosZT2D1   , WkPosZT2D2   , WkPosZT2D3   , WkPosZT2D4   , WkPosZT2D5   , WkPosZT2D6   , WkPosZT2D7   , WkPosZT2D8   , WkPosZT2D9"
"WkPosZT3D1   , WkPosZT3D2   , WkPosZT3D3   , WkPosZT3D4   , WkPosZT3D5   , WkPosZT3D6   , WkPosZT3D7   , WkPosZT3D8   , WkPosZT3D9"
"WkPosZT4D1   , WkPosZT4D2   , WkPosZT4D3   , WkPosZT4D4   , WkPosZT4D5   , WkPosZT4D6   , WkPosZT4D7   , WkPosZT4D8   , WkPosZT4D9"
"WkPosZT5D1   , WkPosZT5D2   , WkPosZT5D3   , WkPosZT5D4   , WkPosZT5D5   , WkPosZT5D6   , WkPosZT5D7   , WkPosZT5D8   , WkPosZT5D9"
"WkPosZT6D1   , WkPosZT6D2   , WkPosZT6D3   , WkPosZT6D4   , WkPosZT6D5   , WkPosZT6D6   , WkPosZT6D7   , WkPosZT6D8   , WkPosZT6D9"
"WkPosZT7D1   , WkPosZT7D2   , WkPosZT7D3   , WkPosZT7D4   , WkPosZT7D5   , WkPosZT7D6   , WkPosZT7D7   , WkPosZT7D8   , WkPosZT7D9"
"WkPosZT8D1   , WkPosZT8D2   , WkPosZT8D3   , WkPosZT8D4   , WkPosZT8D5   , WkPosZT8D6   , WkPosZT8D7   , WkPosZT8D8   , WkPosZT8D9"
"WkPosZT9D1   , WkPosZT9D2   , WkPosZT9D3   , WkPosZT9D4   , WkPosZT9D5   , WkPosZT9D6   , WkPosZT9D7   , WkPosZT9D8   , WkPosZT9D9"
END
---------------------------------------------------------------------------------------